$# LS-DYNA Keyword file created by LS-PrePost(R) V4.8.17 - 24Jun2021
$# Created on Jul-15-2021 (16:05:35)
*KEYWORD MEMORY= MEMORY2=
*TITLE
$#                                                                         title
Test01
*CONTROL_IMPLICIT_BUCKLE
$#   nmode    bckmth      
        12         1
*CONTROL_IMPLICIT_GENERAL
$#  imflag       dt0    imform      nsbs       igs     cnstn      form    zero_v
         1       0.0         2         1         2         0         0         0
*CONTROL_IMPLICIT_TERMINATION
$#  deltau    delta1     ketol     ietol     tetol     nstep     
       0.2       0.0       0.0       0.01.000000E8         3
*DATABASE_BINARY_D3PLOT
$#      dt      lcdt      beam     npltc    psetid      
     0.001         0         0         0         0
$#   ioopt      rate    cutoff    window      type      pset    
         0       0.0       0.0       0.0         0         0
*BOUNDARY_PRESCRIBED_MOTION_SET
$#    nsid       dof       vad      lcid        sf       vid     death     birth
         1         3         2         0       1.0         01.00000E28       0.0
*BOUNDARY_SPC_SET
$#    nsid       cid      dofx      dofy      dofz     dofrx     dofry     dofrz
         1         0         1         1         1         0         0         0
         2         0         1         1         1         0         0         0
*LOAD_NODE_SET
$#    nsid       dof      lcid        sf       cid        m1        m2        m3
         1         3         1      -1.0         0         0         0         0
*PART
$#                                                                         title
flange
$#     pid     secid       mid     eosid      hgid      grav    adpopt      tmid
         1         1         0         0         0         0         0         0
*SECTION_SHELL_TITLE
flange
$#   secid    elform      shrf       nip     propt   qr/irid     icomp     setyp
         1        16     0.833         2       1.0         0         0         1
$#      t1        t2        t3        t4      nloc     marea      idof    edgset
      0.98      0.98      0.98      0.98       0.0       0.0       0.0         0
*PART
$#                                                                         title
web
$#     pid     secid       mid     eosid      hgid      grav    adpopt      tmid
         2         2         0         0         0         0         0         0
*SECTION_SHELL_TITLE
web
$#   secid    elform      shrf       nip     propt   qr/irid     icomp     setyp
         2        16    0.8333         2       1.0         0         0         1
$#      t1        t2        t3        t4      nloc     marea      idof    edgset
      0.55      0.55      0.55      0.55       0.0       0.0       0.0         0
*PART
$#                                                                         title
body
$#     pid     secid       mid     eosid      hgid      grav    adpopt      tmid
         3         3         0         0         0         0         0         0
*SECTION_SHELL_TITLE
body
$#   secid    elform      shrf       nip     propt   qr/irid     icomp     setyp
         3        16     0.833         2       1.0         0         0         1
$#      t1        t2        t3        t4      nloc     marea      idof    edgset
     100.0     100.0     100.0     100.0       0.0       0.0       0.0         0
*MAT_DAMAGE_3_TITLE
steel
$#     mid        ro         e        pr      sigy     hardi      beta      lcss
         17.33000E-7   29000.0       0.3   55.0998       0.0       0.0         4
$#  hardk1    gamma1    hardk2    gamma2       src       srp    hardk3    gamma3
     440.0      22.0     55.23       0.0       0.0       0.0       0.0       0.0
$# idamage       ids      idep      epsd         s         t        dc     khflg
         0         0         0       0.0       0.0       1.0       0.5         0
$#  hardk4    gamma5      
       0.0       0.0
*DEFINE_CURVE
$#    lcid      sidr       sfa       sfo      offa      offo    dattyp     lcint
         1         0       1.0       1.0       0.1       1.0         0         0
$#                a1                  o1  
                 0.0                 0.0
                 0.1                 1.0
                 3.0                 1.0
*DAMPING_GLOBAL
$#    lcid    valdmp       stx       sty       stz       srx       sry       srz
         0     0.001       0.0       0.0       0.0       0.0       0.0       0.0
*ELEMENT_SHELL
$#   eid     pid      n1      n2      n3      n4      n5      n6      n7      n8
       1       1     102     103       2       1       0       0       0       0
       2       1     103     104       3       2       0       0       0       0
       3       1     104     105       4       3       0       0       0       0
       4       1     105     106       5       4       0       0       0       0
       5       1     106     107       6       5       0       0       0       0
       6       1     107     108       7       6       0       0       0       0
       7       1     108     109       8       7       0       0       0       0
       8       1     109     110       9       8       0       0       0       0
       9       1     110     111      10       9       0       0       0       0
      10       1     111     112      11      10       0       0       0       0
      11       1     112     113      12      11       0       0       0       0
      12       1     113     114      13      12       0       0       0       0
      13       1     114     115      14      13       0       0       0       0
      14       1     115     116      15      14       0       0       0       0
      15       1     116     117      16      15       0       0       0       0
      16       1     117     118      17      16       0       0       0       0
      17       1     118     119      18      17       0       0       0       0
      18       1     119     120      19      18       0       0       0       0
      19       1     120     121      20      19       0       0       0       0
      20       1     121     122      21      20       0       0       0       0
$ ... 3668 like lines cut
*NODE
$#   nid               x               y               z      tc      rc  
       1             0.0             4.5             0.0       0       0
       2             0.0             4.5        1.499999       0       0
       3             0.0             4.5        3.000002       0       0
       4             0.0             4.5             4.5       0       0
       5             0.0             4.5        5.999999       0       0
       6             0.0             4.5        7.500002       0       0
       7             0.0             4.5             9.0       0       0
       8             0.0             4.5            10.5       0       0
       9             0.0             4.5            12.0       0       0
      10             0.0             4.5            13.5       0       0
      11             0.0             4.5            15.0       0       0
      12             0.0             4.5            16.5       0       0
      13             0.0             4.5            18.0       0       0
      14             0.0             4.5            19.5       0       0
      15             0.0             4.5            21.0       0       0
      16             0.0             4.5            22.5       0       0
      17             0.0             4.5            24.0       0       0
      18             0.0             4.5            25.5       0       0
      19             0.0             4.5            27.0       0       0
      20             0.0             4.5            28.5       0       0
$ ... 4051 like lines cut
*SET_NODE_LIST
$#     sid       da1       da2       da3       da4    solver      
         3       0.0       0.0       0.0       0.0MECH
$#    nid1      nid2      nid3      nid4      nid5      nid6      nid7      nid8
      5481      5071      5696      5703      5710      5717      5724      5731
      5745      5738      5752      5759      5766      5773      5780      5787
      5794         0         0         0         0         0         0         0
*SET_NODE_LIST
$#     sid       da1       da2       da3       da4    solver      
         4       0.0       0.0       0.0       0.0MECH
$#    nid1      nid2      nid3      nid4      nid5      nid6      nid7      nid8
       404      1425      1432      1439      1446      1453      1460      1467
      1474      1481      1488      1495      1502      1509      1516      1523
      1111         0         0         0         0         0         0         0
*END
